@<TRIPOS>MOLECULE
Molecule
   35    38     1     0     0
SMALL
No Charge or Current Charge


@<TRIPOS>ATOM
      1 Mg1         -2.2710     3.8130     4.4610 Mg         0 MOL       2.000000
      2 O2          -1.7840     5.8140     4.3520 os         0 MOL       0.000000
      3 N3          -1.7500     3.2760     6.5050 na         0 MOL       0.000000
      4 N4          -1.3460     4.1270     7.4480 nb         0 MOL       0.000000
      5 O5          -0.5040     4.2930    10.8590 o          0 MOL       0.000000
      6 C6          -1.0850     3.6540     8.6620 ca         0 MOL       0.000000
      7 C7          -1.9240     1.9810     6.7700 ca         0 MOL       0.000000
      8 O8          -1.8400     7.6570     3.0950 o          0 MOL       0.000000
      9 O9          -0.7090     5.8850     9.3290 o          0 MOL       0.000000
     10 C10         -1.6290     1.4390     8.0160 ca         0 MOL       0.000000
     11 O11         -0.4420     3.2440     3.7380 oh         0 MOL       0.000000
     12 C12         -1.1790     2.3010     8.9830 ca         0 MOL       0.000000
     13 C13         -0.7280     4.7050     9.7060 c          0 MOL       0.000000
     14 C14         -2.0350     6.4570     3.2940 c          0 MOL       0.000000
     15 H15         -1.7410     0.5090     8.1990 ha         0 MOL       0.000000
     16 H16         -0.8990     1.9880     9.7330 ha         0 MOL       0.000000
     17 H17         -0.0430     3.7520     3.2390 ho         0 MOL       0.000000
     18 H18          0.0060     2.7010     4.0860 ho         0 MOL       0.000000
     19 C19         -2.6170     5.6460     2.1510 ca         0 MOL       0.000000
     20 N20         -2.7910     4.3510     2.4170 na         0 MOL       0.000000
     21 O21         -2.7560     1.8130     4.5690 os         0 MOL       0.000000
     22 C22         -2.5060     1.1700     5.6280 c          0 MOL       0.000000
     23 O23         -4.0990     4.3830     5.1840 oh         0 MOL       0.000000
     24 H24         -4.4980     3.8750     5.6830 ho         0 MOL       0.000000
     25 H25         -4.5470     4.9250     4.8350 ho         0 MOL       0.000000
     26 O26         -2.7010    -0.0300     5.8270 o          0 MOL       0.000000
     27 N27         -3.1950     3.5000     1.4730 nb         0 MOL       0.000000
     28 C28         -3.4560     3.9730     0.2590 ca         0 MOL       0.000000
     29 C29         -3.3620     5.3260    -0.0610 ca         0 MOL       0.000000
     30 C30         -2.9120     6.1880     0.9060 ca         0 MOL       0.000000
     31 H31         -2.8000     7.1170     0.7230 ha         0 MOL       0.000000
     32 H32         -3.6420     5.6390    -0.8120 ha         0 MOL       0.000000
     33 C33         -3.8130     2.9220    -0.7850 c          0 MOL       0.000000
     34 O34         -4.0370     3.3340    -1.9380 o          0 MOL       0.000000
     35 O35         -3.8330     1.7420    -0.4080 o          0 MOL       0.000000
@<TRIPOS>BOND
     1     1     2 1   
     2     1     3 1   
     3     1    11 1   
     4     1    20 1   
     5     1    21 1   
     6     1    23 1   
     7     2    14 1   
     8     3     4 1   
     9     3     7 2   
    10     4     6 ar  
    11     5    13 1   
    12     6    12 ar  
    13     6    13 1   
    14     7    10 ar  
    15     7    22 1   
    16     8    14 2   
    17     9    13 1   
    18    10    15 1   
    19    10    12 ar  
    20    11    17 1   
    21    11    18 1   
    22    12    16 1   
    23    14    19 1   
    24    19    20 2   
    25    19    30 ar  
    26    20    27 1   
    27    21    22 1   
    28    22    26 2   
    29    23    24 1   
    30    23    25 1   
    31    27    28 ar  
    32    28    29 ar  
    33    28    33 1   
    34    29    32 1   
    35    29    30 ar  
    36    30    31 1   
    37    33    34 1   
    38    33    35 1   
@<TRIPOS>SUBSTRUCTURE
     1 MOL         1 TEMP              0 ****  ****    0 ROOT
