@<TRIPOS>MOLECULE
ALOHEO
   48    50     1     0     0
SMALL
No Charge or Current Charge


@<TRIPOS>ATOM
      1 Mg1        -10.8390    -4.9420    -6.6020 Mg         1 RES       2.000000
      2 Br1        -10.3070    -5.6810    -9.0960 br         1 RES       0.000000
      3 O1         -11.2960    -5.0000    -4.4820 3o         1 RES       0.000000
      4 O2          -9.5530    -6.4860    -5.7910 4o         1 RES       0.000000
      5 O3         -12.4260    -6.5750    -6.6600 5o         1 RES       0.000000
      6 O4         -12.7140    -3.9340    -7.0280 6o         1 RES       0.000000
      7 C1         -12.3900    -4.3600    -3.8040 c3         1 RES       0.000000
      8 H1         -12.6320    -3.5570    -4.2750 h1         1 RES       0.000000
      9 H2         -12.1240    -4.1360    -2.9090 h1         1 RES       0.000000
     10 H3         -13.1440    -4.9550    -3.7770 h1         1 RES       0.000000
     11 C2         -10.8630    -6.1970    -3.8330 c3         1 RES       0.000000
     12 H4         -11.4750    -6.9260    -4.0250 h1         1 RES       0.000000
     13 H5         -10.8330    -6.0650    -2.8720 h1         1 RES       0.000000
     14 C3          -9.5190    -6.5090    -4.3430 c3         1 RES       0.000000
     15 H6          -8.8800    -5.8550    -4.0170 h1         1 RES       0.000000
     16 H7          -9.2420    -7.3880    -4.0340 h1         1 RES       0.000000
     17 C4          -8.2410    -6.8190    -6.3260 c3         1 RES       0.000000
     18 H8          -8.2690    -6.7870    -7.2850 h1         1 RES       0.000000
     19 H9          -7.9920    -7.7030    -6.0420 h1         1 RES       0.000000
     20 H10         -7.5920    -6.1850    -6.0060 h1         1 RES       0.000000
     21 C5         -12.1500    -7.9430    -6.9870 c3         1 RES       0.000000
     22 H11        -11.3590    -8.2310    -6.5220 h1         1 RES       0.000000
     23 H12        -12.0100    -8.0240    -7.9340 h1         1 RES       0.000000
     24 H13        -12.8940    -8.4910    -6.7240 h1         1 RES       0.000000
     25 C6         -13.5820    -6.1580    -7.4000 c3         1 RES       0.000000
     26 H14        -14.3290    -6.7560    -7.2380 h1         1 RES       0.000000
     27 H15        -13.3930    -6.1460    -8.3520 h1         1 RES       0.000000
     28 C7         -13.9000    -4.7560    -6.9000 c3         1 RES       0.000000
     29 H16        -14.6260    -4.3760    -7.4200 h1         1 RES       0.000000
     30 H17        -14.1790    -4.7930    -5.9710 h1         1 RES       0.000000
     31 C8         -12.7300    -3.1800    -8.2420 c3         1 RES       0.000000
     32 H18        -11.9260    -2.6570    -8.3060 h1         1 RES       0.000000
     33 H19        -13.4940    -2.5940    -8.2460 h1         1 RES       0.000000
     34 H20        -12.7840    -3.7800    -8.9900 h1         1 RES       0.000000
     35 C9          -9.6820    -3.0970    -6.4460 ca         1 RES       0.000000
     36 C10         -9.7140    -2.3270    -5.2160 ca         1 RES       0.000000
     37 H21        -10.1940    -2.6650    -4.4930 ha         1 RES       0.000000
     38 C11         -9.0650    -1.1170    -5.0710 ca         1 RES       0.000000
     39 H22         -9.1420    -0.6510    -4.2690 ha         1 RES       0.000000
     40 C12         -8.2950    -0.5750    -6.1000 ca         1 RES       0.000000
     41 C13         -8.2220    -1.3350    -7.2480 ca         1 RES       0.000000
     42 H23         -7.6840    -1.0360    -7.9470 ha         1 RES       0.000000
     43 C14         -8.9170    -2.5330    -7.4080 ca         1 RES       0.000000
     44 H24         -8.8510    -2.9710    -8.2260 ha         1 RES       0.000000
     45 C15         -7.5490     0.7670    -5.9610 c3         1 RES       0.000000
     46 H25         -7.7310     1.1470    -5.0990 hc         1 RES       0.000000
     47 H26         -7.8480     1.3720    -6.6460 hc         1 RES       0.000000
     48 H27         -6.6040     0.6200    -6.0530 hc         1 RES       0.000000
@<TRIPOS>BOND
     1     1     2 1   
     2     3     1 1   
     3     4     1 1   
     4     5     1 1   
     5     6     1 1   
     6     7     3 1   
     7     8     7 1   
     8     9     7 1   
     9    10     7 1   
    10    11     3 1   
    11    12    11 1   
    12    13    11 1   
    13    14     4 1   
    14    15    14 1   
    15    16    14 1   
    16    17     4 1   
    17    18    17 1   
    18    19    17 1   
    19    20    17 1   
    20    21     5 1   
    21    22    21 1   
    22    23    21 1   
    23    24    21 1   
    24    25     5 1   
    25    26    25 1   
    26    27    25 1   
    27    28     6 1   
    28    29    28 1   
    29    30    28 1   
    30    31     6 1   
    31    32    31 1   
    32    33    31 1   
    33    34    31 1   
    34    35     1 1   
    35    36    35 ar  
    36    37    36 1   
    37    38    36 ar  
    38    39    38 1   
    39    40    38 ar  
    40    41    40 ar  
    41    42    41 1   
    42    43    35 ar  
    43    44    43 1   
    44    45    40 1   
    45    46    45 1   
    46    47    45 1   
    47    48    45 1   
    48    11    14 1   
    49    25    28 1   
    50    41    43 ar  
@<TRIPOS>SUBSTRUCTURE
     1 RES         1 TEMP              0 ****  ****    0 ROOT
