@<TRIPOS>MOLECULE
Molecule
   19    18     1     0     0
SMALL
No Charge or Current Charge


@<TRIPOS>ATOM
      1 Mg1         10.1760    -0.1410     8.7190 Mg         0 MOL       2.000000
      2 O2          11.7680    -1.2900     8.1570 6o         0 MOL       0.000000
      3 H3          11.8260    -2.1060     8.3840 ho         0 MOL       0.000000
      4 H4          12.5540    -0.9660     8.1390 ho         0 MOL       0.000000
      5 O5           8.5260     1.0400     9.3140 5o         0 MOL       0.000000
      6 H6           8.1680     0.6250     9.9630 ho         0 MOL       0.000000
      7 H7           7.9380     0.6910     8.8090 ho         0 MOL       0.000000
      8 O8           8.8720    -1.3970     7.7270 2o         0 MOL       0.000000
      9 H9           8.1490    -1.1770     7.3370 ho         0 MOL       0.000000
     10 H10          8.9150    -2.2450     7.7550 ho         0 MOL       0.000000
     11 O11         10.4120     0.9580     7.0140 3o         0 MOL       0.000000
     12 H12         10.4620     1.8040     6.9440 ho         0 MOL       0.000000
     13 H13         10.0290     0.6540     6.3180 ho         0 MOL       0.000000
     14 O14         11.3390     1.1770     9.7710 4o         0 MOL       0.000000
     15 H15         11.0310     1.8660    10.1630 ho         0 MOL       0.000000
     16 H16         12.1220     1.0260    10.0660 ho         0 MOL       0.000000
     17 O17          9.9550    -1.3300    10.3870 1o         0 MOL       0.000000
     18 H18          9.6320    -2.0950    10.5670 ho         0 MOL       0.000000
     19 H19         10.3770    -1.0460    11.0680 ho         0 MOL       0.000000
@<TRIPOS>BOND
     1     1     2 1   
     2     1     5 1   
     3     1     8 1   
     4     1    11 1   
     5     1    14 1   
     6     1    17 1   
     7     2     3 1   
     8     2     4 1   
     9     5     6 1   
    10     5     7 1   
    11     8     9 1   
    12     8    10 1   
    13    11    12 1   
    14    11    13 1   
    15    14    15 1   
    16    14    16 1   
    17    17    18 1   
    18    17    19 1   
@<TRIPOS>SUBSTRUCTURE
     1 MOL         1 TEMP              0 ****  ****    0 ROOT
