@<TRIPOS>MOLECULE
AKOWEF
   65    66     1     0     0
SMALL
No Charge or Current Charge


@<TRIPOS>ATOM
      1 Si1          5.3050     6.5070     3.6710 Si         1 RES        0.0000000
      2 Mg1          7.9580     5.9410     3.1220 Mg         1 RES        2.0000000
      3 N1           6.1040     5.2760     2.8480 3n         1 RES        0.0000000
      4 N2           6.7660     7.2110     4.4790 4n         1 RES        0.0000000
      5 C7           4.5310     7.8720     2.6400 c3         1 RES        0.0000000
      6 H7A          5.1940     8.2190     2.0070 hc         1 RES        0.0000000
      7 H7B          4.2320     8.5950     3.2290 hc         1 RES        0.0000000
      8 H7C          3.7640     7.5130     2.1470 hc         1 RES        0.0000000
      9 C6           7.0450     6.6320     5.8110 c3         1 RES        0.0000000
     10 H6A          6.4400     7.0270     6.4730 hx         1 RES        0.0000000
     11 H6B          7.9730     6.8220     6.0620 hx         1 RES        0.0000000
     12 H6C          6.9070     5.6620     5.7810 hx         1 RES        0.0000000
     13 C4           5.0450     3.0800     3.2150 c3         1 RES        0.0000000
     14 H4A          5.7820     2.8440     3.8160 hc         1 RES        0.0000000
     15 H4B          4.7320     2.2750     2.7500 hc         1 RES        0.0000000
     16 H4C          4.3080     3.4630     3.7350 hc         1 RES        0.0000000
     17 C2           4.3580     4.4930     1.2760 c3         1 RES        0.0000000
     18 H2A          3.6330     4.8650     1.8200 hc         1 RES        0.0000000
     19 H2B          4.0360     3.6970     0.8030 hc         1 RES        0.0000000
     20 H2C          4.6540     5.1630     0.6250 hc         1 RES        0.0000000
     21 C3           6.6150     3.4540     1.3160 c3         1 RES        0.0000000
     22 H3A          6.8960     4.0810     0.6180 hc         1 RES        0.0000000
     23 H3B          6.2540     2.6430     0.9010 hc         1 RES        0.0000000
     24 H3C          7.3850     3.2200     1.8750 hc         1 RES        0.0000000
     25 C1           5.5340     4.1070     2.1850 c3         1 RES        0.0000000
     26 C8           4.0250     6.0550     4.9630 c3         1 RES        0.0000000
     27 H8A          3.2290     5.6910     4.5210 hc         1 RES        0.0000000
     28 H8B          3.7800     6.8550     5.4730 hc         1 RES        0.0000000
     29 H8C          4.3980     5.3820     5.5700 hc         1 RES        0.0000000
     30 C5           6.8940     8.6750     4.5600 c3         1 RES        0.0000000
     31 H5A          6.7380     9.0660     3.6750 hx         1 RES        0.0000000
     32 H5B          7.7960     8.9070     4.8650 hx         1 RES        0.0000000
     33 H5C          6.2340     9.0260     5.1930 hx         1 RES        0.0000000
     34 Si2         10.6120     6.5070     2.5740 Si         1 RES        0.0000000
     35 N3           9.8130     5.2760     3.3960 2n         1 RES        0.0000000
     36 N4           9.1520     7.2110     1.7650 1n         1 RES        0.0000000
     37 C9          11.3860     7.8720     3.6040 c3         1 RES        0.0000000
     38 H1          10.7230     8.2190     4.2370 hc         1 RES        0.0000000
     39 H9          11.6850     8.5950     3.0150 hc         1 RES        0.0000000
     40 H10         12.1530     7.5130     4.0970 hc         1 RES        0.0000000
     41 C10          8.8720     6.6320     0.4330 c3         1 RES        0.0000000
     42 H11          9.4770     7.0270    -0.2290 hx         1 RES        0.0000000
     43 H12          7.9440     6.8220     0.1820 hx         1 RES        0.0000000
     44 H13          9.0100     5.6620     0.4630 hx         1 RES        0.0000000
     45 C11         10.8720     3.0800     3.0300 c3         1 RES        0.0000000
     46 H14         10.1350     2.8440     2.4280 hc         1 RES        0.0000000
     47 H15         11.1840     2.2750     3.4940 hc         1 RES        0.0000000
     48 H16         11.6090     3.4630     2.5100 hc         1 RES        0.0000000
     49 C12         11.5590     4.4930     4.9680 c3         1 RES        0.0000000
     50 H17         12.2840     4.8650     4.4240 hc         1 RES        0.0000000
     51 H18         11.8810     3.6970     5.4410 hc         1 RES        0.0000000
     52 H19         11.2630     5.1630     5.6190 hc         1 RES        0.0000000
     53 C13          9.3020     3.4540     4.9280 c3         1 RES        0.0000000
     54 H20          9.0210     4.0810     5.6260 hc         1 RES        0.0000000
     55 H21          9.6630     2.6430     5.3430 hc         1 RES        0.0000000
     56 H22          8.5320     3.2200     4.3700 hc         1 RES        0.0000000
     57 C14         10.3830     4.1070     4.0590 c3         1 RES        0.0000000
     58 C15         11.8920     6.0550     1.2810 c3         1 RES        0.0000000
     59 H23         12.6880     5.6910     1.7230 hc         1 RES        0.0000000
     60 H24         12.1370     6.8550     0.7710 hc         1 RES        0.0000000
     61 H25         11.5190     5.3820     0.6740 hc         1 RES        0.0000000
     62 C16          9.0230     8.6750     1.6840 c3         1 RES        0.0000000
     63 H26          9.1790     9.0660     2.5690 hx         1 RES        0.0000000
     64 H27          8.1210     8.9070     1.3790 hx         1 RES        0.0000000
     65 H28          9.6830     9.0260     1.0510 hx         1 RES        0.0000000
@<TRIPOS>BOND
     1     1     3 1   
     2     1     4 1   
     3     1     5 1   
     4     1    26 1   
     5     2     3 1   
     6     2     4 1   
     7     2    35 1   
     8     2    36 1   
     9     3    25 1   
    10     4     9 1   
    11     4    30 1   
    12     5     6 1   
    13     5     7 1   
    14     5     8 1   
    15     9    10 1   
    16     9    11 1   
    17     9    12 1   
    18    13    14 1   
    19    13    15 1   
    20    13    16 1   
    21    13    25 1   
    22    17    18 1   
    23    17    19 1   
    24    17    20 1   
    25    17    25 1   
    26    21    22 1   
    27    21    23 1   
    28    21    24 1   
    29    21    25 1   
    30    26    27 1   
    31    26    28 1   
    32    26    29 1   
    33    30    31 1   
    34    30    32 1   
    35    30    33 1   
    36    34    35 1   
    37    34    36 1   
    38    34    37 1   
    39    34    58 1   
    40    35    57 1   
    41    36    41 1   
    42    36    62 1   
    43    37    38 1   
    44    37    39 1   
    45    37    40 1   
    46    41    42 1   
    47    41    43 1   
    48    41    44 1   
    49    45    46 1   
    50    45    47 1   
    51    45    48 1   
    52    45    57 1   
    53    49    50 1   
    54    49    51 1   
    55    49    52 1   
    56    49    57 1   
    57    53    54 1   
    58    53    55 1   
    59    53    56 1   
    60    53    57 1   
    61    58    59 1   
    62    58    60 1   
    63    58    61 1   
    64    62    63 1   
    65    62    64 1   
    66    62    65 1   
@<TRIPOS>SUBSTRUCTURE
     1 RES         1 TEMP              0 ****  ****    0 ROOT
