@<TRIPOS>MOLECULE
AFAXAI
   74    76     1     0     0
SMALL
No Charge or Current Charge


@<TRIPOS>ATOM
      1 Br1          6.9720     5.5930     5.2510 br         1 RES       0.000000
      2 Mg1          6.5230     3.2380     4.3820 Mg         1 RES       2.000000
      3 O1           4.6200     3.2530     3.6920 os         1 RES       0.000000
      4 C1           3.5110     3.8980     4.3470 c3         1 RES       0.000000
      5 H1A          3.8370     4.3570     5.1620 h1         1 RES       0.000000
      6 H1B          2.8540     3.2130     4.6250 h1         1 RES       0.000000
      7 C2           2.8410     4.8890     3.4650 c3         1 RES       0.000000
      8 H2A          2.0960     5.3050     3.9480 hc         1 RES       0.000000
      9 H2B          2.5000     4.4370     2.6650 hc         1 RES       0.000000
     10 H2C          3.4840     5.5790     3.2000 hc         1 RES       0.000000
     11 C3           4.2170     2.1550     2.8160 c3         1 RES       0.000000
     12 H3A          4.8120     2.1330     2.0240 h1         1 RES       0.000000
     13 H3B          3.2920     2.3100     2.4990 h1         1 RES       0.000000
     14 C4           4.2850     0.8480     3.5220 c3         1 RES       0.000000
     15 H4A          4.0090     0.1320     2.9120 hc         1 RES       0.000000
     16 H4B          3.6860     0.8650     4.2980 hc         1 RES       0.000000
     17 H4C          5.2040     0.6860     3.8220 hc         1 RES       0.000000
     18 C11          7.7590     2.3590     2.8960 ca         1 RES       0.000000
     19 C12          7.8830     2.9840     1.6370 ca         1 RES       0.000000
     20 C13          8.5690     2.3760     0.5810 ca         1 RES       0.000000
     21 H13          8.6450     2.8330    -0.2480 ha         1 RES       0.000000
     22 C14          9.1380     1.1190     0.7160 ca         1 RES       0.000000
     23 C15          9.0300     0.4930     1.9480 ca         1 RES       0.000000
     24 H15          9.4090    -0.3700     2.0650 ha         1 RES       0.000000
     25 C16          8.3760     1.0980     3.0180 ca         1 RES       0.000000
     26 C17          7.2600     4.3480     1.4010 c3         1 RES       0.000000
     27 H17A         7.5150     4.6740     0.5110 hc         1 RES       0.000000
     28 H17B         7.5770     4.9760     2.0830 hc         1 RES       0.000000
     29 H17C         6.2830     4.2740     1.4520 hc         1 RES       0.000000
     30 C18          9.8440     0.4590    -0.4460 c3         1 RES       0.000000
     31 H18A        10.6720     0.9450    -0.6420 hc         1 RES       0.000000
     32 H18B         9.2600     0.4750    -1.2330 hc         1 RES       0.000000
     33 H18C        10.0560    -0.4690    -0.2140 hc         1 RES       0.000000
     34 C19          8.3410     0.3690     4.3420 c3         1 RES       0.000000
     35 H19A         7.4150     0.1260     4.5580 hc         1 RES       0.000000
     36 H19B         8.6970     0.9510     5.0450 hc         1 RES       0.000000
     37 H19C         8.8860    -0.4440     4.2830 hc         1 RES       0.000000
     38 Br2          6.1360     2.3420     6.7810 br         1 RES       0.000000
     39 Mg2          6.5850     4.6970     7.6500 Mg         1 RES       2.000000
     40 O2           8.4880     4.6820     8.3400 os         1 RES       0.000000
     41 C5           9.5970     4.0370     7.6850 c3         1 RES       0.000000
     42 H5           9.2710     3.5780     6.8700 h1         1 RES       0.000000
     43 H6          10.2540     4.7220     7.4070 h1         1 RES       0.000000
     44 C6          10.2670     3.0460     8.5670 c3         1 RES       0.000000
     45 H7          11.0120     2.6310     8.0840 hc         1 RES       0.000000
     46 H8          10.6080     3.4980     9.3670 hc         1 RES       0.000000
     47 H9           9.6240     2.3560     8.8310 hc         1 RES       0.000000
     48 C7           8.8910     5.7800     9.2160 c3         1 RES       0.000000
     49 H10          8.2960     5.8030    10.0080 h1         1 RES       0.000000
     50 H11          9.8160     5.6250     9.5330 h1         1 RES       0.000000
     51 C8           8.8230     7.0870     8.5100 c3         1 RES       0.000000
     52 H12          9.0990     7.8030     9.1200 hc         1 RES       0.000000
     53 H14          9.4220     7.0710     7.7340 hc         1 RES       0.000000
     54 H16          7.9040     7.2490     8.2090 hc         1 RES       0.000000
     55 C9           5.3490     5.5770     9.1360 ca         1 RES       0.000000
     56 C10          5.2240     4.9510    10.3940 ca         1 RES       0.000000
     57 C20          4.5390     5.5600    11.4510 ca         1 RES       0.000000
     58 H20          4.4630     5.1020    12.2800 ha         1 RES       0.000000
     59 C21          3.9700     6.8160    11.3160 ca         1 RES       0.000000
     60 C22          4.0780     7.4420    10.0840 ca         1 RES       0.000000
     61 H21          3.6990     8.3050     9.9670 ha         1 RES       0.000000
     62 C23          4.7320     6.8380     9.0140 ca         1 RES       0.000000
     63 C24          5.8480     3.5870    10.6310 c3         1 RES       0.000000
     64 H22          5.5930     3.2610    11.5210 hc         1 RES       0.000000
     65 H23          5.5300     2.9590     9.9490 hc         1 RES       0.000000
     66 H24          6.8250     3.6610    10.5800 hc         1 RES       0.000000
     67 C25          3.2640     7.4760    12.4780 c3         1 RES       0.000000
     68 H25          2.4360     6.9900    12.6740 hc         1 RES       0.000000
     69 H26          3.8480     7.4600    13.2650 hc         1 RES       0.000000
     70 H27          3.0520     8.4040    12.2460 hc         1 RES       0.000000
     71 C26          4.7670     7.5660     7.6900 c3         1 RES       0.000000
     72 H28          5.6930     7.8090     7.4740 hc         1 RES       0.000000
     73 H29          4.4100     6.9840     6.9870 hc         1 RES       0.000000
     74 H30          4.2220     8.3790     7.7480 hc         1 RES       0.000000
@<TRIPOS>BOND
     1     1     2 1   
     2     1    39 1   
     3     2     3 1   
     4     2    18 1   
     5     2    38 1   
     6     3     4 1   
     7     3    11 1   
     8     4     5 1   
     9     4     6 1   
    10     4     7 1   
    11     7     8 1   
    12     7     9 1   
    13     7    10 1   
    14    11    12 1   
    15    11    13 1   
    16    11    14 1   
    17    14    15 1   
    18    14    16 1   
    19    14    17 1   
    20    18    19 ar  
    21    18    25 ar  
    22    19    20 ar  
    23    19    26 1   
    24    20    21 1   
    25    20    22 ar  
    26    22    23 ar  
    27    22    30 1   
    28    23    24 1   
    29    23    25 ar  
    30    25    34 1   
    31    26    27 1   
    32    26    28 1   
    33    26    29 1   
    34    30    31 1   
    35    30    32 1   
    36    30    33 1   
    37    34    35 1   
    38    34    36 1   
    39    34    37 1   
    40    38    39 1   
    41    39    40 1   
    42    39    55 1   
    43    40    41 1   
    44    40    48 1   
    45    41    42 1   
    46    41    43 1   
    47    41    44 1   
    48    44    45 1   
    49    44    46 1   
    50    44    47 1   
    51    48    49 1   
    52    48    50 1   
    53    48    51 1   
    54    51    52 1   
    55    51    53 1   
    56    51    54 1   
    57    55    56 ar  
    58    55    62 ar  
    59    56    57 ar  
    60    56    63 1   
    61    57    58 1   
    62    57    59 ar  
    63    59    60 ar  
    64    59    67 1   
    65    60    61 1   
    66    60    62 ar  
    67    62    71 1   
    68    63    64 1   
    69    63    65 1   
    70    63    66 1   
    71    67    68 1   
    72    67    69 1   
    73    67    70 1   
    74    71    72 1   
    75    71    73 1   
    76    71    74 1   
@<TRIPOS>SUBSTRUCTURE
     1 RES         1 TEMP              0 ****  ****    0 ROOT
